cases/ieee14/reference.csv
bus_id,vm_pu,va_deg,matpower_vm_pu,matpower_va_deg
1,1.060000,0.0000,1.060000,0.0000
2,1.045000,-4.9826,1.045000,-4.9800
3,1.010000,-12.7251,1.010000,-12.7200
4,1.017671,-10.3129,1.019000,-10.3300
5,1.019514,-8.7739,1.020000,-8.7800
6,1.070000,-14.2209,1.070000,-14.2200
7,1.061520,-13.3596,1.062000,-13.3700
8,1.090000,-13.3596,1.090000,-13.3600
9,1.055932,-14.9385,1.056000,-14.9400
10,1.050985,-15.0973,1.051000,-15.1000
11,1.056907,-14.7906,1.057000,-14.7900
12,1.055189,-15.0756,1.055000,-15.0700
13,1.050382,-15.1563,1.050000,-15.1600
14,1.035530,-16.0336,1.036000,-16.0400
