legacy/pf14/pf_IEEE14_branches.csv
from_bus,to_bus,circuit_id,p_from_mw,q_from_mvar,p_to_mw,q_to_mvar,p_loss_mw,q_loss_mvar,mva_from,mva_to,rate_a_mva,loading_percent
1,2,BL,156.8829,-20.4043,-152.5853,27.6762,4.2976,7.2720,158.2042,155.0750,0.0000,0.00
1,5,BL,75.5104,3.8550,-72.7475,2.2294,2.7629,6.0843,75.6087,72.7817,0.0000,0.00
2,3,BL,73.2376,3.5602,-70.9143,1.6022,2.3233,5.1624,73.3241,70.9324,0.0000,0.00
2,4,BL,56.1315,-1.5504,-54.4548,3.0207,1.6767,1.4703,56.1529,54.5386,0.0000,0.00
2,5,BL,41.5162,1.1710,-40.6125,-2.0990,0.9038,-0.9280,41.5327,40.6667,0.0000,0.00
3,4,BL,-23.2857,4.4731,23.6591,-4.8357,0.3734,-0.3625,23.7114,24.1483,0.0000,0.00
4,5,BL,-61.1582,15.8236,61.6727,-14.2010,0.5144,1.6226,63.1721,63.2865,0.0000,0.00
4,7,BL,28.0742,-9.6811,-28.0742,11.3843,-0.0000,1.7032,29.6965,30.2946,0.0000,0.00
4,9,BL,16.0798,-0.4276,-16.0798,1.7323,0.0000,1.3047,16.0854,16.1728,0.0000,0.00
5,6,BL,44.0873,12.4707,-44.0873,-8.0495,-0.0000,4.4212,45.8171,44.8161,0.0000,0.00
6,11,BL,7.3533,3.5605,-7.2979,-3.4445,0.0554,0.1160,8.1699,8.0699,0.0000,0.00
6,12,BL,7.7861,2.5034,-7.7143,-2.3540,0.0718,0.1495,8.1786,8.0654,0.0000,0.00
6,13,BL,17.7480,7.2166,-17.5359,-6.7989,0.2121,0.4177,19.1591,18.8078,0.0000,0.00
7,8,BL,-0.0000,-17.1630,0.0000,17.6235,0.0000,0.4605,17.1630,17.6235,0.0000,0.00
7,9,BL,28.0742,5.7787,-28.0742,-4.9766,-0.0000,0.8021,28.6627,28.5119,0.0000,0.00
9,10,BL,5.2276,4.2191,-5.2147,-4.1849,0.0129,0.0342,6.7178,6.6863,0.0000,0.00
9,14,BL,9.4264,3.6100,-9.3102,-3.3629,0.1162,0.2471,10.0940,9.8990,0.0000,0.00
10,11,BL,-3.7853,-1.6151,3.7979,1.6445,0.0126,0.0295,4.1155,4.1387,0.0000,0.00
12,13,BL,1.6143,0.7540,-1.6080,-0.7483,0.0063,0.0057,1.7817,1.7735,0.0000,0.00
13,14,BL,5.6439,1.7472,-5.5898,-1.6371,0.0541,0.1101,5.9081,5.8246,0.0000,0.00
