legacy/pf14/pf_IEEE14_buses.csv
bus_id,type,area,zone,base_kv,voltage_pu,angle_deg,p_injection_mw,q_injection_mvar,p_load_mw,q_load_mvar,p_gen_mw,q_gen_mvar,shunt_mvar
1,3,1,2,100.00,1.060000,0.000000,232.3933,-16.9000,0.0000,0.0000,232.3933,-16.9000,0.0000
2,2,1,2,100.00,1.045000,-4.982589,18.3000,30.8571,21.7000,12.7000,40.0000,43.5571,0.0000
3,2,1,2,100.00,1.010000,-12.725100,-94.2000,6.0753,94.2000,19.0000,0.0000,25.0753,0.0000
4,1,1,2,100.00,1.017671,-10.312901,-47.8000,3.9000,47.8000,-3.9000,0.0000,0.0000,0.0000
5,1,1,2,100.00,1.019514,-8.773854,-7.6000,-1.6000,7.6000,1.6000,0.0000,0.0000,0.0000
6,2,1,2,100.00,1.070000,-14.220946,-11.2000,5.2309,11.2000,7.5000,0.0000,12.7309,0.0000
7,1,1,2,100.00,1.061520,-13.359627,0.0000,0.0000,0.0000,0.0000,0.0000,0.0000,0.0000
8,2,1,2,100.00,1.090000,-13.359627,0.0000,17.6235,0.0000,0.0000,0.0000,17.6235,0.0000
9,1,1,2,100.00,1.055932,-14.938521,-29.5000,-16.6000,29.5000,16.6000,0.0000,0.0000,19.0000
10,1,1,2,100.00,1.050985,-15.097288,-9.0000,-5.8000,9.0000,5.8000,0.0000,0.0000,0.0000
11,1,1,2,100.00,1.056907,-14.790622,-3.5000,-1.8000,3.5000,1.8000,0.0000,0.0000,0.0000
12,1,1,2,100.00,1.055189,-15.075585,-6.1000,-1.6000,6.1000,1.6000,0.0000,0.0000,0.0000
13,1,1,2,100.00,1.050382,-15.156276,-13.5000,-5.8000,13.5000,5.8000,0.0000,0.0000,0.0000
14,1,1,2,100.00,1.035530,-16.033645,-14.9000,-5.0000,14.9000,5.0000,0.0000,0.0000,0.0000
